15 

CA                  -2.039           1.496           0.000
CA                  -0.831           0.775           0.000
CA                  -0.844          -0.625           0.000
CA                  -2.058          -1.316           0.000
CA                  -3.263          -0.609           0.000
CA                  -3.256           0.792           0.000
CAT3                -2.038           3.001           0.000
HC                  -1.005           3.411           0.000
HC                  -2.560           3.384           0.902
HC                  -2.560           3.384          -0.902
HA                   0.120           1.292           0.000
HA                  -4.201          -1.149           0.000
HA                  -4.198           1.325           0.000
HA                   0.087          -1.178           0.000
HA                  -2.064          -2.399           0.000
